  Page 1                                    Tue Aug 25 17:16:12 2020

  ******************************************************************
  *                           E P A N E T                          *
  *                   Hydraulic and Water Quality                  *
  *                   Analysis for Pipe Networks                   *
  *                         Version 2.1                            *
  ******************************************************************
  
  Analysis begun Tue Aug 25 17:16:12 2020

  Analysis ended Tue Aug 25 17:16:12 2020
