  Page 1                                    Tue Oct 13 16:46:51 2020

  ******************************************************************
  *                           E P A N E T                          *
  *                   Hydraulic and Water Quality                  *
  *                   Analysis for Pipe Networks                   *
  *                         Version 2.1                            *
  ******************************************************************
  
  Analysis begun Tue Oct 13 16:46:51 2020

  Analysis ended Tue Oct 13 16:46:51 2020
